Version 4
SHEET 1 1404 680
WIRE -96 0 -192 0
WIRE 16 0 -96 0
WIRE 80 0 16 0
WIRE 240 0 80 0
WIRE 384 0 304 0
WIRE 496 0 448 0
WIRE 528 0 496 0
WIRE 608 0 592 0
WIRE 16 16 16 0
WIRE 80 16 80 0
WIRE 496 16 496 0
WIRE -96 64 -96 0
WIRE 496 80 304 80
WIRE 608 80 496 80
WIRE 688 80 608 80
WIRE 816 80 768 80
WIRE 16 128 16 80
WIRE 80 128 80 96
WIRE 80 128 16 128
WIRE 128 128 80 128
WIRE 240 128 240 80
WIRE 240 128 192 128
WIRE 816 144 816 80
WIRE 240 224 240 128
WIRE 240 304 240 224
WIRE 352 320 304 320
WIRE 688 320 352 320
WIRE 448 352 304 352
WIRE -192 384 -192 0
WIRE 176 448 16 448
WIRE 16 464 16 448
WIRE -192 560 -192 464
WIRE -96 560 -96 128
WIRE -96 560 -192 560
WIRE -32 560 -96 560
WIRE 16 560 16 544
WIRE 16 560 -32 560
WIRE 240 560 240 480
WIRE 240 560 16 560
WIRE -32 624 -32 560
FLAG -32 624 0
FLAG 448 352 Tjunction
FLAG 240 224 Vd
FLAG 816 144 0
FLAG 352 320 Tsolder
SYMBOL ind2 224 -16 R0
WINDOW 0 -73 43 Left 2
WINDOW 3 -93 77 Left 2
SYMATTR InstName L1
SYMATTR Value 100µH
SYMATTR Type ind
SYMATTR SpiceLine Rser=0.2 Rpar=1k
SYMBOL ind2 320 96 R180
WINDOW 0 -56 75 Left 2
WINDOW 3 -81 40 Left 2
SYMATTR InstName L2
SYMATTR Value 100µH
SYMATTR Type ind
SYMATTR SpiceLine Rser=0.2 Rpar=1k
SYMBOL schottky 384 16 R270
WINDOW 0 32 32 VTop 2
WINDOW 3 -73 5 VBottom 2
SYMATTR InstName D1
SYMATTR Value RB578VYM100
SYMATTR Description Diode
SYMATTR Type diode
SYMBOL cap 480 16 R0
WINDOW 3 20 48 Left 2
SYMATTR InstName C1
SYMATTR Value 10000µF
SYMBOL cap -112 64 R0
SYMATTR InstName C2
SYMATTR Value 10µF
SYMATTR SpiceLine Rser=10m Lser=10nH
SYMBOL voltage -192 368 R0
WINDOW 123 0 0 Left 0
WINDOW 39 0 0 Left 0
SYMATTR InstName V1
SYMATTR Value 48
SYMBOL res 592 -16 R0
SYMATTR InstName R1
SYMATTR Value 10R
SYMBOL zener 592 -16 R90
WINDOW 0 0 32 VBottom 2
WINDOW 3 -55 21 VTop 2
SYMATTR InstName D2
SYMATTR Value BZX84C10L
SYMATTR Description Diode
SYMATTR Type diode
SYMBOL voltage 16 448 R0
WINDOW 123 0 0 Left 0
WINDOW 39 0 0 Left 0
SYMATTR InstName V2
SYMATTR Value PULSE(0 10 1µs 10ns 10ns 2µs 8µs)
SYMBOL diode 192 112 R90
WINDOW 0 0 32 VBottom 2
WINDOW 3 32 32 VTop 2
SYMATTR InstName D3
SYMATTR Value RF01VM2S
SYMBOL cap 0 16 R0
WINDOW 3 -15 54 Left 2
SYMATTR InstName C3
SYMATTR Value 100nF
SYMBOL res 64 0 R0
SYMATTR InstName R2
SYMATTR Value 1k
SYMBOL SOAtherm-PCB 688 320 R0
SYMATTR InstName U2
SYMATTR Value Area_Contact_mm2=64 Area_PCB_mm2=300 Copper_Thickness_oz=1
SYMBOL SOAtherm-NMOS 240 416 R0
SYMATTR InstName U1
SYMBOL nmos 192 368 R0
SYMATTR InstName M1
SYMATTR Value BSC600N25NS3
SYMBOL res 784 64 R90
WINDOW 0 0 56 VBottom 2
WINDOW 3 32 56 VTop 2
SYMATTR InstName R3
SYMATTR Value 100k
TEXT 168 -48 Left 2 !k L1 L2 0.998
TEXT -290 600 Left 2 !.tran 0 5ms 0ms
