Version 4
SHEET 1 1228 680
WIRE -112 64 -256 64
WIRE -256 96 -256 64
WIRE -112 112 -112 64
WIRE -32 112 -112 112
WIRE 112 112 48 112
WIRE 208 112 112 112
WIRE 336 112 240 112
WIRE 496 112 336 112
WIRE 496 144 496 112
WIRE 112 160 112 112
WIRE 336 160 336 112
WIRE -256 240 -256 176
WIRE 112 256 112 224
WIRE 112 256 -112 256
WIRE 240 256 112 256
WIRE 336 256 336 224
WIRE 336 256 240 256
WIRE 496 256 496 224
WIRE 496 256 336 256
WIRE 240 288 240 256
WIRE -256 336 -256 320
WIRE -112 336 -112 256
WIRE -112 336 -256 336
FLAG 240 288 0
SYMBOL cap 96 160 R0
WINDOW 3 -283 403 Left 2
SYMATTR Value Q=x*({C0+Csat})/2+({Csat-C0})/4*{Vtra}*ln(cosh((x-{Vth})*2/{Vtra}))
SYMATTR InstName C1
SYMBOL cap 320 160 R0
WINDOW 3 -507 437 Left 2
SYMATTR Value Q=x*({C0+Csat})/2+({Csat-C0})/4*{Vtra}*ln(cosh((x-{Vth})*2/{Vtra}))
SYMATTR InstName C2
SYMBOL 74279263 224 112 R0
SYMATTR InstName U1
SYMBOL voltage -256 224 R0
WINDOW 0 41 26 Left 2
WINDOW 123 41 85 Left 2
WINDOW 39 0 0 Left 0
SYMATTR InstName V1
SYMATTR Value2 AC 1 0
SYMATTR Value ""
SYMBOL res 64 96 R90
WINDOW 0 0 56 VBottom 2
WINDOW 3 32 56 VTop 2
SYMATTR InstName R1
SYMATTR Value 50
SYMBOL res 480 128 R0
SYMATTR InstName R2
SYMATTR Value 50
SYMBOL voltage -256 80 R0
WINDOW 0 36 24 Left 2
WINDOW 3 40 119 Left 2
WINDOW 123 40 91 Left 2
WINDOW 39 0 0 Left 0
SYMATTR InstName V2
SYMATTR Value {DCV}
TEXT -48 368 Left 2 !.param C0=10µH Csat=1µH Vth=5 Vtra=5
TEXT -48 344 Left 2 !.step param DCV 0 10 1
TEXT -48 392 Left 2 !.ac oct 100 1000 200k
